* +++++++++++++++++++++++++++++++++++++++++++++++++++++++++ *
* CDL Netlist:                                              *
*                                                           *
* Cell Name  : up_counter                                   *
* Netlisted  : Sun Jul 20 02:44:21 2025                     *
* PVS Version: 22.20-p031 Thu Nov 17 19:06:38 PST 2022      *
* +++++++++++++++++++++++++++++++++++++++++++++++++++++++++ *
*.LDD
*.DEVTMPLT 0 MN(nmos1v) _nmos_12 ndiff_conn(D) poly_conn(G) ndiff_conn(S) psubstrate(B)
*.DEVTMPLT 1 MP(pmos1v) _pmos_12 pdiff_conn(D) poly_conn(G) pdiff_conn(S) nwell_conn(B)

* +++++++++++++++++++++++++++++++++++++++++++++++++++++++++ *
* Sub cell: DFFQXL                                          *
* +++++++++++++++++++++++++++++++++++++++++++++++++++++++++ *
.subckt DFFQXL Q CK VDD VSS D
** N=17 EP=5 FDC=24
M0 VSS 10 Q VSS nmos1v L=1e-07 W=2.4e-07 fw=2.4e-07 simw=2.4e-07 $X=710 $Y=1360 $dt=0
M1 6 CK VSS VSS nmos1v L=1e-07 W=2.4e-07 fw=2.4e-07 simw=2.4e-07 $X=1550 $Y=1360 $dt=0
M2 VSS 11 10 VSS nmos1v L=1e-07 W=2.4e-07 fw=2.4e-07 simw=2.4e-07 $X=3410 $Y=1240 $dt=0
M3 12 10 VSS VSS nmos1v L=1e-07 W=2.4e-07 fw=2.4e-07 simw=2.4e-07 $X=4250 $Y=1240 $dt=0
M4 11 6 12 VSS nmos1v L=1e-07 W=2.4e-07 fw=2.4e-07 simw=2.4e-07 $X=4770 $Y=1240 $dt=0
M5 8 7 11 VSS nmos1v L=1e-07 W=2.4e-07 fw=2.4e-07 simw=2.4e-07 $X=5850 $Y=1240 $dt=0
M6 VSS 9 8 VSS nmos1v L=1e-07 W=2.4e-07 fw=2.4e-07 simw=2.4e-07 $X=6690 $Y=1240 $dt=0
M7 13 8 VSS VSS nmos1v L=1e-07 W=2.4e-07 fw=2.4e-07 simw=2.4e-07 $X=7890 $Y=1240 $dt=0
M8 9 7 13 VSS nmos1v L=1e-07 W=2.4e-07 fw=2.4e-07 simw=2.4e-07 $X=8370 $Y=1240 $dt=0
M9 14 6 9 VSS nmos1v L=1e-07 W=2.4e-07 fw=2.4e-07 simw=2.4e-07 $X=9210 $Y=1240 $dt=0
M10 VSS D 14 VSS nmos1v L=1e-07 W=2.4e-07 fw=2.4e-07 simw=2.4e-07 $X=9650 $Y=1240 $dt=0
M11 7 6 VSS VSS nmos1v L=1e-07 W=2.4e-07 fw=2.4e-07 simw=2.4e-07 $X=10730 $Y=1240 $dt=0
M12 VDD 10 Q VDD pmos1v L=1e-07 W=3.6e-07 fw=3.6e-13 simw=3.6e-07 $X=710 $Y=3450 $dt=1
M13 6 CK VDD VDD pmos1v L=1e-07 W=3.6e-07 fw=3.6e-13 simw=3.6e-07 $X=1550 $Y=3450 $dt=1
M14 VDD 11 10 VDD pmos1v L=1e-07 W=3.6e-07 fw=3.6e-13 simw=3.6e-07 $X=3170 $Y=3500 $dt=1
M15 15 10 VDD VDD pmos1v L=1e-07 W=3.6e-07 fw=3.6e-13 simw=3.6e-07 $X=4250 $Y=3500 $dt=1
M16 11 7 15 VDD pmos1v L=1e-07 W=3.6e-07 fw=3.6e-13 simw=3.6e-07 $X=4690 $Y=3500 $dt=1
M17 8 6 11 VDD pmos1v L=1e-07 W=3.6e-07 fw=3.6e-13 simw=3.6e-07 $X=5530 $Y=3500 $dt=1
M18 VDD 9 8 VDD pmos1v L=1e-07 W=3.6e-07 fw=3.6e-13 simw=3.6e-07 $X=6610 $Y=3500 $dt=1
M19 16 8 VDD VDD pmos1v L=1e-07 W=3.6e-07 fw=3.6e-13 simw=3.6e-07 $X=7690 $Y=3500 $dt=1
M20 9 6 16 VDD pmos1v L=1e-07 W=3.6e-07 fw=3.6e-13 simw=3.6e-07 $X=8130 $Y=3500 $dt=1
M21 17 7 9 VDD pmos1v L=1e-07 W=3.6e-07 fw=3.6e-13 simw=3.6e-07 $X=8970 $Y=3500 $dt=1
M22 VDD D 17 VDD pmos1v L=1e-07 W=3.6e-07 fw=3.6e-13 simw=3.6e-07 $X=9810 $Y=3500 $dt=1
M23 7 6 VDD VDD pmos1v L=1e-07 W=3.6e-07 fw=3.6e-13 simw=3.6e-07 $X=10650 $Y=3500 $dt=1
.ends DFFQXL

* +++++++++++++++++++++++++++++++++++++++++++++++++++++++++ *
* Sub cell: NOR2X2                                          *
* +++++++++++++++++++++++++++++++++++++++++++++++++++++++++ *
.subckt NOR2X2 A B Y VDD VSS
** N=7 EP=5 FDC=8
M0 Y A VSS VSS nmos1v L=1e-07 W=4.3e-07 fw=4.3e-07 simw=4.3e-07 $X=780 $Y=920 $dt=0
M1 VSS B Y VSS nmos1v L=1e-07 W=4.3e-07 fw=4.3e-07 simw=4.3e-07 $X=1620 $Y=920 $dt=0
M2 Y B VSS VSS nmos1v L=1e-07 W=4.3e-07 fw=4.3e-07 simw=4.3e-07 $X=2460 $Y=920 $dt=0
M3 VSS A Y VSS nmos1v L=1e-07 W=4.3e-07 fw=4.3e-07 simw=4.3e-07 $X=3300 $Y=920 $dt=0
M4 6 A VDD VDD pmos1v L=1e-07 W=6.5e-07 fw=6.5e-13 simw=6.5e-07 $X=860 $Y=3120 $dt=1
M5 Y B 6 VDD pmos1v L=1e-07 W=6.5e-07 fw=6.5e-13 simw=6.5e-07 $X=1620 $Y=3120 $dt=1
M6 7 B Y VDD pmos1v L=1e-07 W=6.5e-07 fw=6.5e-13 simw=6.5e-07 $X=2460 $Y=3120 $dt=1
M7 VDD A 7 VDD pmos1v L=1e-07 W=6.5e-07 fw=6.5e-13 simw=6.5e-07 $X=2900 $Y=3120 $dt=1
.ends NOR2X2

* +++++++++++++++++++++++++++++++++++++++++++++++++++++++++ *
* Sub cell: NOR2X4                                          *
* +++++++++++++++++++++++++++++++++++++++++++++++++++++++++ *
.subckt NOR2X4 A Y VDD VSS B
** N=9 EP=5 FDC=16
M0 Y A VSS VSS nmos1v L=1e-07 W=4.3e-07 fw=4.3e-07 simw=4.3e-07 $X=710 $Y=840 $dt=0
M1 VSS B Y VSS nmos1v L=1e-07 W=4.3e-07 fw=4.3e-07 simw=4.3e-07 $X=1550 $Y=840 $dt=0
M2 Y B VSS VSS nmos1v L=1e-07 W=4.3e-07 fw=4.3e-07 simw=4.3e-07 $X=2390 $Y=840 $dt=0
M3 VSS A Y VSS nmos1v L=1e-07 W=4.3e-07 fw=4.3e-07 simw=4.3e-07 $X=3230 $Y=840 $dt=0
M4 Y A VSS VSS nmos1v L=1e-07 W=4.3e-07 fw=4.3e-07 simw=4.3e-07 $X=4070 $Y=840 $dt=0
M5 VSS B Y VSS nmos1v L=1e-07 W=4.3e-07 fw=4.3e-07 simw=4.3e-07 $X=4910 $Y=840 $dt=0
M6 Y B VSS VSS nmos1v L=1e-07 W=4.3e-07 fw=4.3e-07 simw=4.3e-07 $X=5750 $Y=840 $dt=0
M7 VSS A Y VSS nmos1v L=1e-07 W=4.3e-07 fw=4.3e-07 simw=4.3e-07 $X=6590 $Y=840 $dt=0
M8 6 A VDD VDD pmos1v L=1e-07 W=6.5e-07 fw=6.5e-13 simw=6.5e-07 $X=1110 $Y=3120 $dt=1
M9 Y B 6 VDD pmos1v L=1e-07 W=6.5e-07 fw=6.5e-13 simw=6.5e-07 $X=2150 $Y=3120 $dt=1
M10 7 B Y VDD pmos1v L=1e-07 W=6.5e-07 fw=6.5e-13 simw=6.5e-07 $X=2990 $Y=3120 $dt=1
M11 VDD A 7 VDD pmos1v L=1e-07 W=6.5e-07 fw=6.5e-13 simw=6.5e-07 $X=3430 $Y=3120 $dt=1
M12 8 A VDD VDD pmos1v L=1e-07 W=6.5e-07 fw=6.5e-13 simw=6.5e-07 $X=4270 $Y=3120 $dt=1
M13 Y B 8 VDD pmos1v L=1e-07 W=6.5e-07 fw=6.5e-13 simw=6.5e-07 $X=4710 $Y=3120 $dt=1
M14 9 B Y VDD pmos1v L=1e-07 W=6.5e-07 fw=6.5e-13 simw=6.5e-07 $X=5550 $Y=3120 $dt=1
M15 VDD A 9 VDD pmos1v L=1e-07 W=6.5e-07 fw=6.5e-13 simw=6.5e-07 $X=6190 $Y=3120 $dt=1
.ends NOR2X4

* +++++++++++++++++++++++++++++++++++++++++++++++++++++++++ *
* Sub cell: XNOR2X1                                         *
* +++++++++++++++++++++++++++++++++++++++++++++++++++++++++ *
.subckt XNOR2X1 Y A VDD VSS B
** N=10 EP=5 FDC=12
M0 VSS 8 Y VSS nmos1v L=1e-07 W=4.3e-07 fw=4.3e-07 simw=4.3e-07 $X=1110 $Y=980 $dt=0
M1 6 A VSS VSS nmos1v L=1e-07 W=2.4e-07 fw=2.4e-07 simw=2.4e-07 $X=1950 $Y=1240 $dt=0
M2 8 B 6 VSS nmos1v L=1e-07 W=2.4e-07 fw=2.4e-07 simw=2.4e-07 $X=2790 $Y=1240 $dt=0
M3 9 7 8 VSS nmos1v L=1e-07 W=2.4e-07 fw=2.4e-07 simw=2.4e-07 $X=3630 $Y=1240 $dt=0
M4 VSS 6 9 VSS nmos1v L=1e-07 W=2.4e-07 fw=2.4e-07 simw=2.4e-07 $X=4630 $Y=1240 $dt=0
M5 7 B VSS VSS nmos1v L=1e-07 W=2.4e-07 fw=2.4e-07 simw=2.4e-07 $X=5470 $Y=1240 $dt=0
M6 VDD 8 Y VDD pmos1v L=1e-07 W=6.5e-07 fw=6.5e-13 simw=6.5e-07 $X=710 $Y=3080 $dt=1
M7 6 A VDD VDD pmos1v L=1e-07 W=3.6e-07 fw=3.6e-13 simw=3.6e-07 $X=1550 $Y=3080 $dt=1
M8 8 7 6 VDD pmos1v L=1e-07 W=3.6e-07 fw=3.6e-13 simw=3.6e-07 $X=2390 $Y=3080 $dt=1
M9 10 B 8 VDD pmos1v L=1e-07 W=3.6e-07 fw=3.6e-13 simw=3.6e-07 $X=3910 $Y=3080 $dt=1
M10 VDD 6 10 VDD pmos1v L=1e-07 W=3.6e-07 fw=3.6e-13 simw=3.6e-07 $X=4630 $Y=3080 $dt=1
M11 7 B VDD VDD pmos1v L=1e-07 W=3.6e-07 fw=3.6e-13 simw=3.6e-07 $X=5470 $Y=3080 $dt=1
.ends XNOR2X1

* +++++++++++++++++++++++++++++++++++++++++++++++++++++++++ *
* Sub cell: NAND2XL                                         *
* +++++++++++++++++++++++++++++++++++++++++++++++++++++++++ *
.subckt NAND2XL A Y VDD VSS B
** N=6 EP=5 FDC=4
M0 6 A VSS VSS nmos1v L=1e-07 W=2.4e-07 fw=2.4e-07 simw=2.4e-07 $X=800 $Y=1360 $dt=0
M1 Y B 6 VSS nmos1v L=1e-07 W=2.4e-07 fw=2.4e-07 simw=2.4e-07 $X=1240 $Y=1360 $dt=0
M2 Y A VDD VDD pmos1v L=1e-07 W=3.6e-07 fw=3.6e-13 simw=3.6e-07 $X=680 $Y=2760 $dt=1
M3 VDD B Y VDD pmos1v L=1e-07 W=3.6e-07 fw=3.6e-13 simw=3.6e-07 $X=1520 $Y=2760 $dt=1
.ends NAND2XL

* +++++++++++++++++++++++++++++++++++++++++++++++++++++++++ *
* Sub cell: DFFXL                                           *
* +++++++++++++++++++++++++++++++++++++++++++++++++++++++++ *
.subckt DFFXL QN VDD VSS Q CK D
** N=19 EP=6 FDC=28
M0 VSS 13 QN VSS nmos1v L=1e-07 W=2.4e-07 fw=2.4e-07 simw=2.4e-07 $X=710 $Y=1360 $dt=0
M1 13 11 VSS VSS nmos1v L=1e-07 W=2.4e-07 fw=2.4e-07 simw=2.4e-07 $X=1550 $Y=1360 $dt=0
M2 VSS 11 Q VSS nmos1v L=1e-07 W=2.4e-07 fw=2.4e-07 simw=2.4e-07 $X=3170 $Y=1360 $dt=0
M3 7 CK VSS VSS nmos1v L=1e-07 W=2.4e-07 fw=2.4e-07 simw=2.4e-07 $X=4170 $Y=1360 $dt=0
M4 VSS 12 11 VSS nmos1v L=1e-07 W=2.4e-07 fw=2.4e-07 simw=2.4e-07 $X=5790 $Y=1240 $dt=0
M5 14 11 VSS VSS nmos1v L=1e-07 W=2.4e-07 fw=2.4e-07 simw=2.4e-07 $X=6630 $Y=1240 $dt=0
M6 12 7 14 VSS nmos1v L=1e-07 W=2.4e-07 fw=2.4e-07 simw=2.4e-07 $X=7590 $Y=1240 $dt=0
M7 9 8 12 VSS nmos1v L=1e-07 W=2.4e-07 fw=2.4e-07 simw=2.4e-07 $X=8430 $Y=1240 $dt=0
M8 VSS 10 9 VSS nmos1v L=1e-07 W=2.4e-07 fw=2.4e-07 simw=2.4e-07 $X=9510 $Y=1240 $dt=0
M9 15 9 VSS VSS nmos1v L=1e-07 W=2.4e-07 fw=2.4e-07 simw=2.4e-07 $X=10710 $Y=1240 $dt=0
M10 10 8 15 VSS nmos1v L=1e-07 W=2.4e-07 fw=2.4e-07 simw=2.4e-07 $X=11350 $Y=1240 $dt=0
M11 16 7 10 VSS nmos1v L=1e-07 W=2.4e-07 fw=2.4e-07 simw=2.4e-07 $X=12190 $Y=1240 $dt=0
M12 VSS D 16 VSS nmos1v L=1e-07 W=2.4e-07 fw=2.4e-07 simw=2.4e-07 $X=12630 $Y=1240 $dt=0
M13 8 7 VSS VSS nmos1v L=1e-07 W=2.4e-07 fw=2.4e-07 simw=2.4e-07 $X=13710 $Y=1240 $dt=0
M14 VDD 13 QN VDD pmos1v L=1e-07 W=3.6e-07 fw=3.6e-13 simw=3.6e-07 $X=710 $Y=2680 $dt=1
M15 13 11 VDD VDD pmos1v L=1e-07 W=3.6e-07 fw=3.6e-13 simw=3.6e-07 $X=1550 $Y=2680 $dt=1
M16 VDD 11 Q VDD pmos1v L=1e-07 W=3.6e-07 fw=3.6e-13 simw=3.6e-07 $X=3330 $Y=2760 $dt=1
M17 7 CK VDD VDD pmos1v L=1e-07 W=3.6e-07 fw=3.6e-13 simw=3.6e-07 $X=4170 $Y=2760 $dt=1
M18 VDD 12 11 VDD pmos1v L=1e-07 W=3.6e-07 fw=3.6e-13 simw=3.6e-07 $X=5950 $Y=3500 $dt=1
M19 17 11 VDD VDD pmos1v L=1e-07 W=3.6e-07 fw=3.6e-13 simw=3.6e-07 $X=7030 $Y=3500 $dt=1
M20 12 8 17 VDD pmos1v L=1e-07 W=3.6e-07 fw=3.6e-13 simw=3.6e-07 $X=7470 $Y=3500 $dt=1
M21 9 7 12 VDD pmos1v L=1e-07 W=3.6e-07 fw=3.6e-13 simw=3.6e-07 $X=8350 $Y=3500 $dt=1
M22 VDD 10 9 VDD pmos1v L=1e-07 W=3.6e-07 fw=3.6e-13 simw=3.6e-07 $X=9510 $Y=3500 $dt=1
M23 18 9 VDD VDD pmos1v L=1e-07 W=3.6e-07 fw=3.6e-13 simw=3.6e-07 $X=10590 $Y=3500 $dt=1
M24 10 7 18 VDD pmos1v L=1e-07 W=3.6e-07 fw=3.6e-13 simw=3.6e-07 $X=11030 $Y=3500 $dt=1
M25 19 8 10 VDD pmos1v L=1e-07 W=3.6e-07 fw=3.6e-13 simw=3.6e-07 $X=11870 $Y=3500 $dt=1
M26 VDD D 19 VDD pmos1v L=1e-07 W=3.6e-07 fw=3.6e-13 simw=3.6e-07 $X=12790 $Y=3500 $dt=1
M27 8 7 VDD VDD pmos1v L=1e-07 W=3.6e-07 fw=3.6e-13 simw=3.6e-07 $X=13630 $Y=3500 $dt=1
.ends DFFXL

* +++++++++++++++++++++++++++++++++++++++++++++++++++++++++ *
* Sub cell: CLKXOR2X1                                       *
* +++++++++++++++++++++++++++++++++++++++++++++++++++++++++ *
.subckt CLKXOR2X1 Y VDD VSS A B
** N=10 EP=5 FDC=12
M0 VSS 8 Y VSS nmos1v L=1e-07 W=4.3e-07 fw=4.3e-07 simw=4.3e-07 $X=710 $Y=980 $dt=0
M1 6 A VSS VSS nmos1v L=1e-07 W=2.4e-07 fw=2.4e-07 simw=2.4e-07 $X=1830 $Y=1080 $dt=0
M2 8 7 6 VSS nmos1v L=1e-07 W=2.4e-07 fw=2.4e-07 simw=2.4e-07 $X=3110 $Y=1080 $dt=0
M3 9 B 8 VSS nmos1v L=1e-07 W=2.4e-07 fw=2.4e-07 simw=2.4e-07 $X=3950 $Y=1080 $dt=0
M4 VSS 6 9 VSS nmos1v L=1e-07 W=2.4e-07 fw=2.4e-07 simw=2.4e-07 $X=4390 $Y=1080 $dt=0
M5 7 B VSS VSS nmos1v L=1e-07 W=2.4e-07 fw=2.4e-07 simw=2.4e-07 $X=5230 $Y=1080 $dt=0
M6 VDD 8 Y VDD pmos1v L=1e-07 W=6.5e-07 fw=6.5e-13 simw=6.5e-07 $X=780 $Y=3120 $dt=1
M7 6 A VDD VDD pmos1v L=1e-07 W=3.6e-07 fw=3.6e-13 simw=3.6e-07 $X=1860 $Y=3240 $dt=1
M8 8 B 6 VDD pmos1v L=1e-07 W=3.6e-07 fw=3.6e-13 simw=3.6e-07 $X=2700 $Y=3240 $dt=1
M9 10 7 8 VDD pmos1v L=1e-07 W=3.6e-07 fw=3.6e-13 simw=3.6e-07 $X=3540 $Y=3240 $dt=1
M10 VDD 6 10 VDD pmos1v L=1e-07 W=3.6e-07 fw=3.6e-13 simw=3.6e-07 $X=4150 $Y=3240 $dt=1
M11 7 B VDD VDD pmos1v L=1e-07 W=3.6e-07 fw=3.6e-13 simw=3.6e-07 $X=4990 $Y=3240 $dt=1
.ends CLKXOR2X1

* +++++++++++++++++++++++++++++++++++++++++++++++++++++++++ *
* Sub cell: OR2X1                                           *
* +++++++++++++++++++++++++++++++++++++++++++++++++++++++++ *
.subckt OR2X1 B A VDD VSS Y
** N=7 EP=5 FDC=6
M0 6 B VSS VSS nmos1v L=1e-07 W=2.4e-07 fw=2.4e-07 simw=2.4e-07 $X=770 $Y=1320 $dt=0
M1 VSS A 6 VSS nmos1v L=1e-07 W=2.4e-07 fw=2.4e-07 simw=2.4e-07 $X=1610 $Y=1320 $dt=0
M2 Y 6 VSS VSS nmos1v L=1e-07 W=4.3e-07 fw=4.3e-07 simw=4.3e-07 $X=2570 $Y=940 $dt=0
M3 7 B 6 VDD pmos1v L=1e-07 W=3.6e-07 fw=3.6e-13 simw=3.6e-07 $X=1170 $Y=3100 $dt=1
M4 VDD A 7 VDD pmos1v L=1e-07 W=3.6e-07 fw=3.6e-13 simw=3.6e-07 $X=1610 $Y=3100 $dt=1
M5 Y 6 VDD VDD pmos1v L=1e-07 W=6.5e-07 fw=6.5e-13 simw=6.5e-07 $X=2570 $Y=3100 $dt=1
.ends OR2X1

* +++++++++++++++++++++++++++++++++++++++++++++++++++++++++ *
* Sub cell: VIA2X                                           *
* +++++++++++++++++++++++++++++++++++++++++++++++++++++++++ *
.subckt VIA2X 1
** N=1 EP=1 FDC=0
.ends VIA2X

* +++++++++++++++++++++++++++++++++++++++++++++++++++++++++ *
* Sub cell: VIA1X                                           *
* +++++++++++++++++++++++++++++++++++++++++++++++++++++++++ *
.subckt VIA1X 1
** N=1 EP=1 FDC=0
.ends VIA1X

* +++++++++++++++++++++++++++++++++++++++++++++++++++++++++ *
* Sub cell: VIA1V                                           *
* +++++++++++++++++++++++++++++++++++++++++++++++++++++++++ *
.subckt VIA1V 1
** N=1 EP=1 FDC=0
.ends VIA1V

* +++++++++++++++++++++++++++++++++++++++++++++++++++++++++ *
* Sub cell: up_counter_VIA0                                 *
* +++++++++++++++++++++++++++++++++++++++++++++++++++++++++ *
.subckt up_counter_VIA0 1
** N=1 EP=1 FDC=0
.ends up_counter_VIA0

* +++++++++++++++++++++++++++++++++++++++++++++++++++++++++ *
* Sub cell: up_counter_VIA1                                 *
* +++++++++++++++++++++++++++++++++++++++++++++++++++++++++ *
.subckt up_counter_VIA1 1
** N=1 EP=1 FDC=0
.ends up_counter_VIA1

* +++++++++++++++++++++++++++++++++++++++++++++++++++++++++ *
* Sub cell: up_counter_VIA2                                 *
* +++++++++++++++++++++++++++++++++++++++++++++++++++++++++ *
.subckt up_counter_VIA2 1
** N=1 EP=1 FDC=0
.ends up_counter_VIA2

* +++++++++++++++++++++++++++++++++++++++++++++++++++++++++ *
* Sub cell: up_counter_VIA3                                 *
* +++++++++++++++++++++++++++++++++++++++++++++++++++++++++ *
.subckt up_counter_VIA3 1
** N=1 EP=1 FDC=0
.ends up_counter_VIA3

* +++++++++++++++++++++++++++++++++++++++++++++++++++++++++ *
* Sub cell: up_counter_VIA4                                 *
* +++++++++++++++++++++++++++++++++++++++++++++++++++++++++ *
.subckt up_counter_VIA4 1
** N=1 EP=1 FDC=0
.ends up_counter_VIA4

* +++++++++++++++++++++++++++++++++++++++++++++++++++++++++ *
* Sub cell: up_counter_VIA5                                 *
* +++++++++++++++++++++++++++++++++++++++++++++++++++++++++ *
.subckt up_counter_VIA5 1
** N=1 EP=1 FDC=0
.ends up_counter_VIA5

* +++++++++++++++++++++++++++++++++++++++++++++++++++++++++ *
* Sub cell: up_counter_VIA6                                 *
* +++++++++++++++++++++++++++++++++++++++++++++++++++++++++ *
.subckt up_counter_VIA6 1
** N=1 EP=1 FDC=0
.ends up_counter_VIA6

* +++++++++++++++++++++++++++++++++++++++++++++++++++++++++ *
* Sub cell: up_counter_VIA7                                 *
* +++++++++++++++++++++++++++++++++++++++++++++++++++++++++ *
.subckt up_counter_VIA7 1
** N=1 EP=1 FDC=0
.ends up_counter_VIA7

* +++++++++++++++++++++++++++++++++++++++++++++++++++++++++ *
* Sub cell: up_counter_VIA8                                 *
* +++++++++++++++++++++++++++++++++++++++++++++++++++++++++ *
.subckt up_counter_VIA8 1
** N=1 EP=1 FDC=0
.ends up_counter_VIA8

* +++++++++++++++++++++++++++++++++++++++++++++++++++++++++ *
* Sub cell: up_counter                                      *
* +++++++++++++++++++++++++++++++++++++++++++++++++++++++++ *
.subckt up_counter VDD VSS clk count[0] count[1] count[2] count[3] rst
** N=18 EP=8 FDC=194
X0 count[0] clk VDD VSS 5 DFFQXL $T=16240 31900 0 0 $X=15640 $Y=31540
X1 count[3] clk VDD VSS 7 DFFQXL $T=21460 31900 1 0 $X=20860 $Y=26080
X2 count[1] clk VDD VSS 9 DFFQXL $T=34800 31900 0 0 $X=34200 $Y=31540
X3 10 rst 7 VDD VSS NOR2X2 $T=17980 21460 0 0 $X=17380 $Y=21100
X4 count[0] rst 5 VDD VSS NOR2X2 $T=26100 42340 0 180 $X=20860 $Y=36520
X5 12 9 VDD VSS rst NOR2X4 $T=37120 42340 1 0 $X=36520 $Y=36520
X6 13 14 VDD VSS rst NOR2X4 $T=46400 21460 0 180 $X=38260 $Y=15640
X7 12 count[0] VDD VSS count[1] XNOR2X1 $T=35380 42340 0 180 $X=28400 $Y=36520
X8 13 15 VDD VSS 16 XNOR2X1 $T=38280 21460 0 180 $X=31300 $Y=15640
X9 count[0] 16 VDD VSS count[1] NAND2XL $T=33060 31900 1 180 $X=30140 $Y=31540
X10 15 VDD VSS count[2] clk 14 DFFXL $T=31900 21460 0 0 $X=31300 $Y=21100
X11 10 VDD VSS count[3] 18 CLKXOR2X1 $T=17400 21460 1 0 $X=16800 $Y=15640
X12 15 16 VDD VSS 18 OR2X1 $T=30160 21460 0 180 $X=26080 $Y=15640
X13 count[0] VIA2X $T=16530 37990 0 0 $X=16270 $Y=37730
X14 clk VIA2X $T=17690 33930 0 0 $X=17430 $Y=33670
X15 count[3] VIA2X $T=18850 24070 0 0 $X=18590 $Y=23810
X16 clk VIA2X $T=22910 33930 0 0 $X=22650 $Y=33670
X17 rst VIA2X $T=24650 39150 0 0 $X=24390 $Y=38890
X18 count[0] VIA2X $T=25230 37990 0 0 $X=24970 $Y=37730
X19 count[0] VIA2X $T=26970 37990 0 0 $X=26710 $Y=37730
X20 16 VIA2X $T=28130 18850 0 0 $X=27870 $Y=18590
X21 clk VIA2X $T=28710 33930 0 0 $X=28450 $Y=33670
X22 15 VIA2X $T=31030 20590 0 0 $X=30770 $Y=20330
X23 rst VIA2X $T=32190 39150 0 0 $X=31930 $Y=38890
X24 16 VIA2X $T=33930 18850 0 0 $X=33670 $Y=18590
X25 count[0] VIA2X $T=33930 37990 0 0 $X=33670 $Y=37730
X26 15 VIA2X $T=36250 20590 0 0 $X=35990 $Y=20330
X27 clk VIA2X $T=36250 33930 0 0 $X=35990 $Y=33670
X28 13 VIA2X $T=37990 18850 0 0 $X=37730 $Y=18590
X29 rst VIA2X $T=42050 39150 0 0 $X=41790 $Y=38890
X30 13 VIA2X $T=44950 18850 0 0 $X=44690 $Y=18590
X31 10 VIA1X $T=17690 24070 0 0 $X=17430 $Y=23810
X32 clk VIA1X $T=17690 35090 0 0 $X=17430 $Y=34830
X33 count[3] VIA1X $T=18850 28710 0 0 $X=18590 $Y=28450
X34 18 VIA1X $T=21750 18850 0 0 $X=21490 $Y=18590
X35 18 VIA1X $T=22910 17110 0 0 $X=22650 $Y=16850
X36 clk VIA1X $T=22910 28710 0 0 $X=22650 $Y=28450
X37 5 VIA1X $T=24070 37990 0 0 $X=23810 $Y=37730
X38 5 VIA1X $T=26390 35090 0 0 $X=26130 $Y=34830
X39 16 VIA1X $T=28130 18850 0 0 $X=27870 $Y=18590
X40 16 VIA1X $T=28130 33930 0 0 $X=27870 $Y=33670
X41 15 VIA1X $T=31030 19430 0 0 $X=30770 $Y=19170
X42 15 VIA1X $T=31030 23490 0 0 $X=30770 $Y=23230
X43 count[1] VIA1X $T=31030 39730 0 0 $X=30770 $Y=39470
X44 7 VIA1X $T=31610 25230 0 0 $X=31350 $Y=24970
X45 7 VIA1X $T=31610 28710 0 0 $X=31350 $Y=28450
X46 16 VIA1X $T=33930 18850 0 0 $X=33670 $Y=18590
X47 count[1] VIA1X $T=33930 35090 0 0 $X=33670 $Y=34830
X48 count[0] VIA1X $T=34510 34510 0 0 $X=34250 $Y=34250
X49 clk VIA1X $T=36250 24070 0 0 $X=35990 $Y=23810
X50 clk VIA1X $T=36250 35090 0 0 $X=35990 $Y=34830
X51 rst VIA1X $T=41470 18850 0 0 $X=41210 $Y=18590
X52 rst VIA1X $T=42050 39730 0 0 $X=41790 $Y=39470
X53 14 VIA1X $T=43790 18270 0 0 $X=43530 $Y=18010
X54 13 VIA1X $T=44950 18850 0 0 $X=44690 $Y=18590
X55 14 VIA1X $T=44950 24650 0 0 $X=44690 $Y=24390
X56 9 VIA1X $T=44950 35090 0 0 $X=44690 $Y=34830
X57 9 VIA1X $T=44950 39730 0 0 $X=44690 $Y=39470
X58 count[0] VIA1V $T=16530 35090 0 0 $X=16380 $Y=34830
X59 10 VIA1V $T=17690 20010 0 0 $X=17540 $Y=19750
X60 count[3] VIA1V $T=18850 18270 0 0 $X=18700 $Y=18010
X61 rst VIA1V $T=19430 24650 0 0 $X=19280 $Y=24390
X62 rst VIA1V $T=24650 39150 0 0 $X=24500 $Y=38890
X63 count[0] VIA1V $T=25230 39730 0 0 $X=25080 $Y=39470
X64 count[1] VIA1V $T=31610 34510 0 0 $X=31460 $Y=34250
X65 count[0] VIA1V $T=33930 39730 0 0 $X=33780 $Y=39470
X66 count[2] VIA1V $T=34510 24650 0 0 $X=34360 $Y=24390
X67 15 VIA1V $T=36830 18850 0 0 $X=36680 $Y=18590
X68 13 VIA1V $T=37990 17110 0 0 $X=37840 $Y=16850
X69 VSS up_counter_VIA0 $T=5820 21460 0 0 $X=4020 $Y=21000
X70 VSS up_counter_VIA0 $T=5820 31900 0 0 $X=4020 $Y=31440
X71 VSS up_counter_VIA0 $T=5820 42340 0 0 $X=4020 $Y=41880
X72 VDD up_counter_VIA0 $T=10420 16240 0 0 $X=8620 $Y=15780
X73 VDD up_counter_VIA0 $T=10420 26680 0 0 $X=8620 $Y=26220
X74 VDD up_counter_VIA0 $T=10420 37120 0 0 $X=8620 $Y=36660
X75 VDD up_counter_VIA0 $T=52800 16240 0 0 $X=51000 $Y=15780
X76 VDD up_counter_VIA0 $T=52800 26680 0 0 $X=51000 $Y=26220
X77 VDD up_counter_VIA0 $T=52800 37120 0 0 $X=51000 $Y=36660
X78 VSS up_counter_VIA0 $T=57400 21460 0 0 $X=55600 $Y=21000
X79 VSS up_counter_VIA0 $T=57400 31900 0 0 $X=55600 $Y=31440
X80 VSS up_counter_VIA0 $T=57400 42340 0 0 $X=55600 $Y=41880
X81 VSS up_counter_VIA1 $T=5820 21460 0 0 $X=4020 $Y=21100
X82 VSS up_counter_VIA1 $T=5820 31900 0 0 $X=4020 $Y=31540
X83 VSS up_counter_VIA1 $T=5820 42340 0 0 $X=4020 $Y=41980
X84 VDD up_counter_VIA1 $T=10420 16240 0 0 $X=8620 $Y=15880
X85 VDD up_counter_VIA1 $T=10420 26680 0 0 $X=8620 $Y=26320
X86 VDD up_counter_VIA1 $T=10420 37120 0 0 $X=8620 $Y=36760
X87 VDD up_counter_VIA1 $T=52800 16240 0 0 $X=51000 $Y=15880
X88 VDD up_counter_VIA1 $T=52800 26680 0 0 $X=51000 $Y=26320
X89 VDD up_counter_VIA1 $T=52800 37120 0 0 $X=51000 $Y=36760
X90 VSS up_counter_VIA1 $T=57400 21460 0 0 $X=55600 $Y=21100
X91 VSS up_counter_VIA1 $T=57400 31900 0 0 $X=55600 $Y=31540
X92 VSS up_counter_VIA1 $T=57400 42340 0 0 $X=55600 $Y=41980
X93 VSS up_counter_VIA2 $T=5820 21460 0 0 $X=4020 $Y=21100
X94 VSS up_counter_VIA2 $T=5820 31900 0 0 $X=4020 $Y=31540
X95 VSS up_counter_VIA2 $T=5820 42340 0 0 $X=4020 $Y=41980
X96 VDD up_counter_VIA2 $T=10420 16240 0 0 $X=8620 $Y=15880
X97 VDD up_counter_VIA2 $T=10420 26680 0 0 $X=8620 $Y=26320
X98 VDD up_counter_VIA2 $T=10420 37120 0 0 $X=8620 $Y=36760
X99 VDD up_counter_VIA2 $T=52800 16240 0 0 $X=51000 $Y=15880
X100 VDD up_counter_VIA2 $T=52800 26680 0 0 $X=51000 $Y=26320
X101 VDD up_counter_VIA2 $T=52800 37120 0 0 $X=51000 $Y=36760
X102 VSS up_counter_VIA2 $T=57400 21460 0 0 $X=55600 $Y=21100
X103 VSS up_counter_VIA2 $T=57400 31900 0 0 $X=55600 $Y=31540
X104 VSS up_counter_VIA2 $T=57400 42340 0 0 $X=55600 $Y=41980
X105 VSS up_counter_VIA3 $T=5820 21460 0 0 $X=4020 $Y=21100
X106 VSS up_counter_VIA3 $T=5820 31900 0 0 $X=4020 $Y=31540
X107 VSS up_counter_VIA3 $T=5820 42340 0 0 $X=4020 $Y=41980
X108 VDD up_counter_VIA3 $T=10420 16240 0 0 $X=8620 $Y=15880
X109 VDD up_counter_VIA3 $T=10420 26680 0 0 $X=8620 $Y=26320
X110 VDD up_counter_VIA3 $T=10420 37120 0 0 $X=8620 $Y=36760
X111 VDD up_counter_VIA3 $T=52800 16240 0 0 $X=51000 $Y=15880
X112 VDD up_counter_VIA3 $T=52800 26680 0 0 $X=51000 $Y=26320
X113 VDD up_counter_VIA3 $T=52800 37120 0 0 $X=51000 $Y=36760
X114 VSS up_counter_VIA3 $T=57400 21460 0 0 $X=55600 $Y=21100
X115 VSS up_counter_VIA3 $T=57400 31900 0 0 $X=55600 $Y=31540
X116 VSS up_counter_VIA3 $T=57400 42340 0 0 $X=55600 $Y=41980
X117 VSS up_counter_VIA4 $T=5820 21460 0 0 $X=4020 $Y=21100
X118 VSS up_counter_VIA4 $T=5820 31900 0 0 $X=4020 $Y=31540
X119 VSS up_counter_VIA4 $T=5820 42340 0 0 $X=4020 $Y=41980
X120 VDD up_counter_VIA4 $T=10420 16240 0 0 $X=8620 $Y=15880
X121 VDD up_counter_VIA4 $T=10420 26680 0 0 $X=8620 $Y=26320
X122 VDD up_counter_VIA4 $T=10420 37120 0 0 $X=8620 $Y=36760
X123 VDD up_counter_VIA4 $T=52800 16240 0 0 $X=51000 $Y=15880
X124 VDD up_counter_VIA4 $T=52800 26680 0 0 $X=51000 $Y=26320
X125 VDD up_counter_VIA4 $T=52800 37120 0 0 $X=51000 $Y=36760
X126 VSS up_counter_VIA4 $T=57400 21460 0 0 $X=55600 $Y=21100
X127 VSS up_counter_VIA4 $T=57400 31900 0 0 $X=55600 $Y=31540
X128 VSS up_counter_VIA4 $T=57400 42340 0 0 $X=55600 $Y=41980
X129 VSS up_counter_VIA5 $T=5820 21460 0 0 $X=4020 $Y=21100
X130 VSS up_counter_VIA5 $T=5820 31900 0 0 $X=4020 $Y=31540
X131 VSS up_counter_VIA5 $T=5820 42340 0 0 $X=4020 $Y=41980
X132 VDD up_counter_VIA5 $T=10420 16240 0 0 $X=8620 $Y=15880
X133 VDD up_counter_VIA5 $T=10420 26680 0 0 $X=8620 $Y=26320
X134 VDD up_counter_VIA5 $T=10420 37120 0 0 $X=8620 $Y=36760
X135 VDD up_counter_VIA5 $T=52800 16240 0 0 $X=51000 $Y=15880
X136 VDD up_counter_VIA5 $T=52800 26680 0 0 $X=51000 $Y=26320
X137 VDD up_counter_VIA5 $T=52800 37120 0 0 $X=51000 $Y=36760
X138 VSS up_counter_VIA5 $T=57400 21460 0 0 $X=55600 $Y=21100
X139 VSS up_counter_VIA5 $T=57400 31900 0 0 $X=55600 $Y=31540
X140 VSS up_counter_VIA5 $T=57400 42340 0 0 $X=55600 $Y=41980
X141 VSS up_counter_VIA6 $T=5820 21460 0 0 $X=4020 $Y=21100
X142 VSS up_counter_VIA6 $T=5820 31900 0 0 $X=4020 $Y=31540
X143 VSS up_counter_VIA6 $T=5820 42340 0 0 $X=4020 $Y=41980
X144 VDD up_counter_VIA6 $T=10420 16240 0 0 $X=8620 $Y=15880
X145 VDD up_counter_VIA6 $T=10420 26680 0 0 $X=8620 $Y=26320
X146 VDD up_counter_VIA6 $T=10420 37120 0 0 $X=8620 $Y=36760
X147 VDD up_counter_VIA6 $T=52800 16240 0 0 $X=51000 $Y=15880
X148 VDD up_counter_VIA6 $T=52800 26680 0 0 $X=51000 $Y=26320
X149 VDD up_counter_VIA6 $T=52800 37120 0 0 $X=51000 $Y=36760
X150 VSS up_counter_VIA6 $T=57400 21460 0 0 $X=55600 $Y=21100
X151 VSS up_counter_VIA6 $T=57400 31900 0 0 $X=55600 $Y=31540
X152 VSS up_counter_VIA6 $T=57400 42340 0 0 $X=55600 $Y=41980
X153 VSS up_counter_VIA7 $T=5820 22640 0 0 $X=4020 $Y=20840
X154 VSS up_counter_VIA7 $T=5820 31590 0 0 $X=4020 $Y=29790
X155 VSS up_counter_VIA7 $T=5820 40540 0 0 $X=4020 $Y=38740
X156 VDD up_counter_VIA7 $T=10420 18040 0 0 $X=8620 $Y=16240
X157 VDD up_counter_VIA7 $T=18040 10420 0 0 $X=16240 $Y=8620
X158 VDD up_counter_VIA7 $T=18040 18040 0 0 $X=16240 $Y=16240
X159 VDD up_counter_VIA7 $T=18040 48160 0 0 $X=16240 $Y=46360
X160 VSS up_counter_VIA7 $T=22640 5820 0 0 $X=20840 $Y=4020
X161 VSS up_counter_VIA7 $T=22640 22640 0 0 $X=20840 $Y=20840
X162 VSS up_counter_VIA7 $T=22640 31590 0 0 $X=20840 $Y=29790
X163 VSS up_counter_VIA7 $T=22640 40540 0 0 $X=20840 $Y=38740
X164 VSS up_counter_VIA7 $T=22640 52760 0 0 $X=20840 $Y=50960
X165 VDD up_counter_VIA7 $T=29310 10420 0 0 $X=27510 $Y=8620
X166 VDD up_counter_VIA7 $T=29310 18040 0 0 $X=27510 $Y=16240
X167 VDD up_counter_VIA7 $T=29310 48160 0 0 $X=27510 $Y=46360
X168 VSS up_counter_VIA7 $T=33910 5820 0 0 $X=32110 $Y=4020
X169 VSS up_counter_VIA7 $T=33910 22640 0 0 $X=32110 $Y=20840
X170 VSS up_counter_VIA7 $T=33910 31590 0 0 $X=32110 $Y=29790
X171 VSS up_counter_VIA7 $T=33910 40540 0 0 $X=32110 $Y=38740
X172 VSS up_counter_VIA7 $T=33910 52760 0 0 $X=32110 $Y=50960
X173 VDD up_counter_VIA7 $T=40580 10420 0 0 $X=38780 $Y=8620
X174 VDD up_counter_VIA7 $T=40580 18040 0 0 $X=38780 $Y=16240
X175 VDD up_counter_VIA7 $T=40580 48160 0 0 $X=38780 $Y=46360
X176 VSS up_counter_VIA7 $T=45180 5820 0 0 $X=43380 $Y=4020
X177 VSS up_counter_VIA7 $T=45180 22640 0 0 $X=43380 $Y=20840
X178 VSS up_counter_VIA7 $T=45180 31590 0 0 $X=43380 $Y=29790
X179 VSS up_counter_VIA7 $T=45180 40540 0 0 $X=43380 $Y=38740
X180 VSS up_counter_VIA7 $T=45180 52760 0 0 $X=43380 $Y=50960
X181 VDD up_counter_VIA7 $T=52800 18040 0 0 $X=51000 $Y=16240
X182 VSS up_counter_VIA7 $T=57400 22640 0 0 $X=55600 $Y=20840
X183 VSS up_counter_VIA7 $T=57400 31590 0 0 $X=55600 $Y=29790
X184 VSS up_counter_VIA7 $T=57400 40540 0 0 $X=55600 $Y=38740
X185 VSS up_counter_VIA8 $T=5820 5820 0 0 $X=4020 $Y=4020
X186 VSS up_counter_VIA8 $T=5820 52760 0 0 $X=4020 $Y=50960
X187 VDD up_counter_VIA8 $T=10420 10420 0 0 $X=8620 $Y=8620
X188 VDD up_counter_VIA8 $T=10420 48160 0 0 $X=8620 $Y=46360
X189 VDD up_counter_VIA8 $T=52800 10420 0 0 $X=51000 $Y=8620
X190 VDD up_counter_VIA8 $T=52800 48160 0 0 $X=51000 $Y=46360
X191 VSS up_counter_VIA8 $T=57400 5820 0 0 $X=55600 $Y=4020
X192 VSS up_counter_VIA8 $T=57400 52760 0 0 $X=55600 $Y=50960
.ends up_counter
