*SPEF "IEEE 1481-1998"
*DESIGN "up_counter"
*DATE "Wed Jul 16 01:15:04 2025"
*VENDOR "Cadence Design Systems, Inc."
*PROGRAM "Innovus"
*VERSION "21.15-s110_1"
*DESIGN_FLOW "PIN_CAP NONE" "NAME_SCOPE LOCAL"
*DIVIDER /
*DELIMITER :
*BUS_DELIMITER []
*T_UNIT 1 NS
*C_UNIT 1 PF
*R_UNIT 1 OHM
*L_UNIT 1 HENRY

// MMMC spef file for corner 'RC'

*NAME_MAP

*1 clk
*2 rst
*3 count[3]
*4 count[2]
*5 count[1]
*6 count[0]
*7 n_0
*8 n_1
*9 n_3
*10 n_4
*11 n_10
*12 n_15
*13 n_25
*14 n_26
*15 n_27
*16 n_31
*17 count_reg\[3\]
*18 g173__2398
*19 count_reg\[1\]
*20 g181__5526
*21 count_reg\[0\]
*22 g184__1617
*23 g186__2802
*24 g185__1705
*25 g2
*26 g3
*27 count_reg\[2\]
*28 g198
*29 g200


*PORTS

*1 I *C 14.065 29.29
*2 I *C 15.805 29.29
*3 O *C 0 12.035
*4 O *C 17.255 0
*5 O *C 16.385 29.29
*6 O *C 13.485 29.29


*D_NET *1 0.00272789

*CONN
*I *21:CK I *C 8.845 17.545 *L 0.00167 *D DFFQXL
*I *17:CK I *C 11.455 14.355 *L 0.00167 *D DFFQXL
*I *19:CK I *C 18.125 17.545 *L 0.00167 *D DFFQXL
*I *27:CK I *C 18.125 12.035 *L 0.00171 *D DFFXL
*P *1 I *C 14.065 29.29 *L 0

*CAP
1 *1:0 2.64747e-05
2 *1:1 0.000111997
3 *1:2 2.64747e-05
4 *1:3 0.000236438
5 *1:5 0.000286214
6 *1:6 0.000119136
7 *1:7 2.64747e-05
8 *1:8 0.000161773
9 *1:9 0.000119136
10 *1:10 3.97121e-05
11 *1:11 0.00025151
12 *1:13 5.29494e-05
13 *1:14 2.64747e-05
14 *1:15 0.000225035
15 *1:16 5.29494e-05
16 *1:19 0.000145611
17 *1:20 0.000145611
18 *1:21 0.000343577
19 *1 0.00033034

*RES
1 *1:21 *1 3.23151
2 *1:20 *1:21 0.124289
3 *1:19 *1:20 1.24289
4 *1:16 *1:19 0.124289
5 *1:15 *27:CK 1.4
6 *1:14 *19:CK 1.4
7 *1:13 *1:16 0.372866
8 *1:11 *1:15 2.11291
9 *1:11 *1:14 0.248578
10 *1:10 *1:13 0.124289
11 *1:9 *17:CK 1.4
12 *1:8 *1:11 1.4
13 *1:7 *1:10 0.248578
14 *1:6 *1:9 1.1186
15 *1:5 *1:8 1.6157
16 *1:5 *1:7 1.4
17 *1:3 *1:6 1.4
18 *1:3 *1:5 1.24285
19 *1:2 *21:CK 1.4
20 *1:1 *1:3 1.11856
21 *1:0 *1:2 0.248578
22 *1:0 *1:1 1.4
*END

*D_NET *2 0.00357534

*CONN
*I *20:B I *C 21.025 19.865 *L 0.0109 *D NOR2X4
*I *25:B I *C 20.735 9.425 *L 0.0109 *D NOR2X4
*I *24:B I *C 12.325 19.575 *L 0.00542 *D NOR2X2
*P *2 I *C 15.805 29.29 *L 0
*I *18:B I *C 9.715 12.325 *L 0.00542 *D NOR2X2

*CAP
1 *2:1 0.000291222
2 *2:2 0.000211549
3 *2:3 1.32374e-05
4 *2:4 0.000291222
5 *2:5 0.000373323
6 *2:7 0.00019856
7 *2:8 3.97121e-05
8 *2:9 0.000161773
9 *2:10 0.000185323
10 *2:11 5.29494e-05
11 *2:12 6.61868e-05
12 *2:14 3.97121e-05
13 *2:15 0.000158848
14 *2:17 3.97121e-05
15 *2:18 0.000105899
16 *2:19 0.00032147
17 *2:20 0.000185323
18 *2:21 0.000320014
19 *2:22 0.000185323
20 *2:23 4.71257e-05
21 *2:24 7.94241e-05
22 *2 3.53442e-05
23 *2:26 0.000119136
24 *2:27 5.29494e-05

*RES
1 *2:27 *18:B 1.4
2 *2:26 *2:27 0.497155
3 *2:24 *2:26 0.621444
4 *2:23 *2 0.372866
5 *2:22 *2:24 0.124289
6 *2:21 *2:23 0.124289
7 *2:20 *2:22 1.61575
8 *2:19 *2:21 2.98293
9 *2:18 *2:20 0.124289
10 *2:17 *2:19 0.124289
11 *2:15 *2:18 0.870021
12 *2:14 *2:17 0.248578
13 *2:12 *24:B 1.4
14 *2:12 *2:15 0.621444
15 *2:11 *2:14 0.124289
16 *2:10 *25:B 1.4
17 *2:9 *2:12 1.4
18 *2:8 *2:11 0.372866
19 *2:7 *2:10 1.74004
20 *2:5 *2:9 1.6157
21 *2:5 *2:8 1.4
22 *2:4 *2:7 0.124289
23 *2:3 *20:B 1.4
24 *2:2 *2:5 2.11284
25 *2:1 *2:4 2.61006
26 *2:1 *2:3 0.124289
27 *2:1 *2:2 1.4
28 *2:0 *2:1 0.0878571
*END

*D_NET *3 0.00137252

*CONN
*P *3 O *C 0 12.035 *L 0
*I *28:A I *C 9.425 9.135 *L 0.00183 *D CLKXOR2X1
*I *17:Q O *C 10.875 15.225 *L 0 *D DFFQXL

*CAP
1 *3 0.000385767
2 *3:1 0.000385767
3 *3:2 0.000238272
4 *3:3 0.000105899
5 *3:4 0.000132374
6 *3:5 6.22204e-05
7 *17:Q 6.22204e-05

*RES
1 *3:5 *17:Q 0.621425
2 *3:4 *28:A 1.4
3 *3:3 *3:5 1.4
4 *3:2 *3:4 1.24289
5 *3:2 *3:3 0.99431
6 *3:1 *3:2 1.4
7 *3 *3:1 3.85283
*END

*D_NET *4 0.00108546

*CONN
*P *4 O *C 17.255 0 *L 0
*I *27:Q O *C 17.255 12.325 *L 0 *D DFFXL

*CAP
1 *4 0.000542731
2 *4:1 0.000542731

*RES
1 *4:1 *27:Q 1.4
2 *4 *4:1 5.09584
*END

*D_NET *5 0.00142527

*CONN
*I *22:B I *C 15.515 19.865 *L 0.00349 *D XNOR2X1
*P *5 O *C 16.385 29.29 *L 0
*I *23:B I *C 15.805 17.255 *L 0.00167 *D NAND2XL
*I *19:Q O *C 17.545 16.675 *L 0 *D DFFQXL

*CAP
1 *5:0 0.000105899
2 *5:1 6.61868e-05
3 *5:2 9.26615e-05
4 *5:3 0.0005289
5 *5:4 2.64747e-05
6 *5:6 2.64747e-05
7 *5 0.000489188
8 *5:9 2.64747e-05
9 *5:10 1.32374e-05
10 *5:11 2.48882e-05
11 *19:Q 2.48882e-05

*RES
1 *5:11 *19:Q 0.24857
2 *5:10 *5:11 1.4
3 *5:9 *5:10 0.124289
4 *5:6 *5:9 0.124289
5 *5:4 *23:B 1.4
6 *5:3 *5 4.72297
7 *5:3 *5:6 0.124289
8 *5:2 *22:B 1.4
9 *5:1 *5:4 0.248578
10 *5:1 *5:3 0.248578
11 *5:0 *5:2 0.870021
12 *5:0 *5:1 0.124289
*END

*D_NET *6 0.00222037

*CONN
*I *21:Q O *C 8.265 16.675 *L 0 *D DFFQXL
*I *24:A I *C 12.615 19.865 *L 0.00564 *D NOR2X2
*I *22:A I *C 16.965 19.865 *L 0.00177 *D XNOR2X1
*P *6 O *C 13.485 29.29 *L 0
*I *23:A I *C 16.385 17.255 *L 0.00157 *D NAND2XL

*CAP
1 *6:1 6.61868e-05
2 *6:2 6.61868e-05
3 *6:3 0.000186661
4 *6:4 0.000223993
5 *6:5 0.000186661
6 *6:6 3.97121e-05
7 *6:7 0.000149329
8 *6:8 7.94241e-05
9 *6:9 3.97121e-05
10 *6:10 7.94241e-05
11 *6:11 9.26615e-05
12 *6:13 3.97121e-05
13 *6:14 5.29494e-05
14 *6:15 0.000334708
15 *6:17 5.29494e-05
16 *6:18 0.000333252
17 *6:19 3.97121e-05
18 *6:20 4.71257e-05
19 *6:21 3.73323e-05
20 *6 3.53442e-05
21 *23:A 3.73323e-05

*RES
1 *6:21 *23:A 0.372855
2 *6:20 *6 0.372866
3 *6:19 *6:21 1.4
4 *6:18 *6:20 0.124289
5 *6:17 *6:19 0.372866
6 *6:15 *6:18 3.10722
7 *6:14 *6:17 0.124289
8 *6:13 *22:A 1.4
9 *6:11 *6:15 0.124289
10 *6:10 *6:14 0.372866
11 *6:10 *6:13 0.372866
12 *6:9 *24:A 1.4
13 *6:8 *6:11 0.745733
14 *6:7 *6:10 1.4
15 *6:6 *6:9 0.372866
16 *6:5 *6:8 1.4
17 *6:5 *6:7 1.49142
18 *6:4 *6:6 1.4
19 *6:4 *6:5 0.372855
20 *6:3 *6:4 1.86427
21 *6:2 *6:3 1.4
22 *6:1 *6:2 0.621444
23 *21:Q *6:1 1.4
*END

*D_NET *7 0.000238272

*CONN
*I *24:Y O *C 12.035 19.285 *L 0 *D NOR2X2
*I *21:D I *C 13.195 17.545 *L 0.00164 *D DFFQXL

*CAP
1 *7:0 7.94241e-05
2 *7:1 2.64747e-05
3 *7:2 9.26615e-05
4 *7:4 3.97121e-05

*RES
1 *7:4 *21:D 1.4
2 *7:2 *7:4 0.372866
3 *7:1 *24:Y 1.4
4 *7:0 *7:2 0.497155
5 *7:0 *7:1 0.248578
*END

*D_NET *8 0.000174217

*CONN
*I *22:Y O *C 17.545 20.155 *L 0 *D XNOR2X1
*I *20:A I *C 19.285 19.865 *L 0.0111 *D NOR2X4

*CAP
1 *22:Y 4.97763e-05
2 *8:1 6.22204e-05
3 *8:2 3.73323e-05
4 *20:A 2.48882e-05

*RES
1 *8:2 *20:A 0.24857
2 *8:1 *8:2 0.124285
3 *22:Y *8:1 0.49714
*END

*D_NET *9 0.00120247

*CONN
*I *26:B I *C 16.965 9.425 *L 0.00349 *D XNOR2X1
*I *29:A I *C 14.065 9.425 *L 0.00173 *D OR2X1
*I *23:Y O *C 15.805 16.675 *L 0 *D NAND2XL

*CAP
1 *9:1 3.5744e-05
2 *9:2 0.000139565
3 *26:B 1.8566e-05
4 *9:4 0.000139565
5 *9:5 0.000363343
6 *9:6 0.000346165
7 *29:A 1.8566e-05
8 *9:8 7.97593e-05
9 *23:Y 6.11933e-05

*RES
1 *9:8 *23:Y 0.621429
2 *9:6 *9:8 1.4
3 *9:5 *29:A 1.4
4 *9:5 *9:6 3.23143
5 *9:4 *9:5 1.4
6 *9:2 *9:4 1.24286
7 *9:1 *26:B 1.4
8 *9:1 *9:2 1.4
9 *9:0 *9:1 0.220714
*END

*D_NET *10 0.000261574

*CONN
*I *20:Y O *C 19.865 19.575 *L 0 *D NOR2X4
*I *19:D I *C 22.475 17.545 *L 0.00164 *D DFFQXL

*CAP
1 *20:Y 2.48882e-05
2 *10:1 2.48882e-05
3 *10:2 0.000105899
4 *10:3 0.000105899

*RES
1 *10:3 *19:D 1.4
2 *10:2 *10:3 0.99431
3 *10:1 *10:2 1.4
4 *20:Y *10:1 0.24857
*END

*D_NET *11 0.000690533

*CONN
*I *18:Y O *C 10.005 12.615 *L 0 *D NOR2X2
*I *17:D I *C 15.805 14.355 *L 0.00164 *D DFFQXL

*CAP
1 *18:Y 0.000171341
2 *11:1 0.000195819
3 *11:2 6.11933e-05
4 *11:3 5.5282e-05
5 *11:4 9.41658e-05
6 *11:5 9.41658e-05
7 *17:D 1.8566e-05

*RES
1 *11:5 *17:D 1.4
2 *11:4 *11:5 0.745714
3 *11:3 *11:4 1.4
4 *11:2 *11:3 0.372857
5 *11:1 *11:2 0.248571
6 *18:Y *11:1 1.74
*END

*D_NET *12 0.000614768

*CONN
*I *29:B I *C 14.935 9.715 *L 0.00165 *D OR2X1
*I *27:QN O *C 16.095 11.455 *L 0 *D DFFXL
*I *26:A I *C 18.415 9.425 *L 0.00177 *D XNOR2X1

*CAP
1 *29:B 2.48882e-05
2 *12:1 2.48882e-05
3 *12:2 2.64747e-05
4 *12:3 9.26615e-05
5 *12:4 6.61868e-05
6 *12:5 0.000111997
7 *12:6 2.48882e-05
8 *12:7 0.000111997
9 *27:QN 2.48882e-05
10 *12:9 3.97121e-05
11 *12:10 5.29494e-05
12 *12:11 1.32374e-05

*RES
1 *12:11 *26:A 1.4
2 *12:10 *12:11 0.124289
3 *12:9 *12:10 0.372866
4 *12:7 *12:9 1.4
5 *12:6 *27:QN 0.24857
6 *12:5 *12:7 1.11856
7 *12:4 *12:6 1.4
8 *12:3 *12:5 1.4
9 *12:3 *12:4 0.621444
10 *12:2 *12:3 0.248578
11 *12:1 *12:2 1.4
12 *29:B *12:1 0.24857
*END

*D_NET *13 0.000378082

*CONN
*I *25:A I *C 22.475 9.425 *L 0.0111 *D NOR2X4
*I *26:Y O *C 18.995 9.715 *L 0 *D XNOR2X1

*CAP
1 *13:2 0.000149329
2 *13:4 0.000149329
3 *13:5 3.97121e-05
4 *13:6 3.97121e-05

*RES
1 *13:6 *26:Y 1.4
2 *13:5 *13:6 0.372866
3 *13:4 *13:5 1.4
4 *13:2 *13:4 1.49142
5 *13:1 *25:A 1.4
6 *13:1 *13:2 1.4
7 *13:0 *13:1 0.220714
*END

*D_NET *14 0.000344171

*CONN
*I *25:Y O *C 21.895 9.135 *L 0 *D NOR2X4
*I *27:D I *C 22.475 12.325 *L 0.00162 *D DFFXL

*CAP
1 *14:1 3.97121e-05
2 *14:2 6.61868e-05
3 *14:3 0.000132374
4 *14:4 0.000105899

*RES
1 *14:4 *27:D 1.4
2 *14:3 *14:4 0.99431
3 *14:2 *14:3 0.248578
4 *14:1 *14:2 0.372866
5 *25:Y *14:1 1.4
*END

*D_NET *15 0.000235099

*CONN
*I *28:Y O *C 8.845 10.005 *L 0 *D CLKXOR2X1
*I *18:A I *C 9.425 12.035 *L 0.00564 *D NOR2X2

*CAP
1 *15:1 9.26615e-05
2 *15:2 9.26615e-05
3 *15:3 2.48882e-05
4 *18:A 2.48882e-05

*RES
1 *15:3 *18:A 0.24857
2 *15:2 *15:3 1.4
3 *15:1 *15:2 0.870021
4 *28:Y *15:1 1.4
*END

*D_NET *16 0.000331479

*CONN
*I *28:B I *C 10.875 9.425 *L 0.00363 *D CLKXOR2X1
*I *29:Y O *C 13.485 9.135 *L 0 *D OR2X1

*CAP
1 *16:0 6.61868e-05
2 *16:1 2.64747e-05
3 *16:2 3.97121e-05
4 *16:3 2.48882e-05
5 *16:5 3.73323e-05
6 *16:6 7.46645e-05
7 *29:Y 6.22204e-05

*RES
1 *16:6 *29:Y 0.621425
2 *16:5 *16:6 0.124285
3 *16:3 *16:5 0.24857
4 *16:2 *28:B 1.4
5 *16:1 *16:3 1.4
6 *16:0 *16:2 0.372866
7 *16:0 *16:1 0.248578
*END

